@<TRIPOS>MOLECULE
A17
   13    13     1     0     0
SMALL
resp


@<TRIPOS>ATOM
      1 Cl1          2.2650     0.0000     0.0000 cl         1 A17    -0.122010
      2 C1           0.5040     0.0000    -0.0000 ca         1 A17    -0.035960
      3 C2          -0.1790     1.2160    -0.0000 ca         1 A17    -0.021350
      4 C3          -1.5740     1.2080     0.0000 ca         1 A17    -0.202690
      5 C4          -2.2750     0.0000     0.0000 ca         1 A17    -0.093250
      6 C5          -1.5740    -1.2080    -0.0000 ca         1 A17    -0.202690
      7 C6          -0.1790    -1.2160     0.0000 ca         1 A17    -0.021350
      8 H1           0.3740     2.1490    -0.0000 ha         1 A17     0.123930
      9 H2          -2.1130     2.1520     0.0000 ha         1 A17     0.156590
     10 H3          -3.3610     0.0000     0.0000 ha         1 A17     0.138240
     11 H4          -2.1130    -2.1520     0.0000 ha         1 A17     0.156590
     12 H5           0.3740    -2.1490    -0.0000 ha         1 A17     0.123950
     13 EP1          3.2650    0.0000    0.0000 EP        1 A17        0.000000
@<TRIPOS>BOND
     1     1     2 1   
     2     2     3 ar  
     3     2     7 ar  
     4     3     4 ar  
     5     3     8 1   
     6     4     5 ar  
     7     4     9 1   
     8     5     6 ar  
     9     5    10 1   
    10     6     7 ar  
    11     6    11 1   
    12     7    12 1   
    13    1   13 1   
@<TRIPOS>SUBSTRUCTURE
     1 A17         1 TEMP              0 ****  ****    0 ROOT
